12

O -0.7769940739 -1.4766404315 0.0000000000
EP_O -0.4883757956 -1.4982213345 -0.0000000000
EP_O -0.9649887908 -1.6966954982 0.0000000000
N -1.2031526529 -0.3745854972 0.0000000000
EP_N -1.3291302008 -0.3029548086 0.0000000000
S 0.0000000000 0.9369389442 0.0000000000
EP_S -0.0363009294 1.1982606038 0.5878776774
EP_S -0.0363009294 1.1982606038 -0.5878776774
C 1.5200901139 -0.0000804349 0.0000000000
H 2.3537643589 0.7204028046 0.0000000000
H 1.5818588531 -0.6378612140 0.8977285004
H 1.5818588531 -0.6378612140 -0.8977285004
