12

O -1.6665298527 -1.1588806291 0.0000000000
EP_O -2.2632059480 -0.3943814567 0.0000000000
EP_O -2.0171638388 -2.0630582417 -0.0000000000
N -0.5097019020 -0.9557871781 0.0000000000
EP_N -0.1179561663 -1.1725773257 -0.0000000000
S 0.0000000000 0.7729114717 0.0000000000
EP_S -0.1868233883 1.0832355309 -0.7795342566
EP_S -0.1868233883 1.0832355309 0.7795342566
C 1.7555760895 0.4165693588 0.0000000000
H 2.2796213398 1.3860902731 0.0000000000
H 2.0435358065 -0.1452654945 0.9025572425
H 2.0435358065 -0.1452654945 -0.9025572425
