12

O -0.7831362337 -1.5110348335 0.0000000000
EP_O -0.7147408529 -1.4918186426 -0.0000000000
EP_O -0.8435151087 -1.5484725361 0.0000000000
N -1.2336523106 -0.4112066769 0.0000000000
EP_N -1.2364359431 -0.4159102168 -0.0000000000
S 0.0000000000 0.9618780078 0.0000000000
EP_S 0.0000181913 0.9617532170 0.0000206139
EP_S 0.0000181913 0.9617532170 -0.0000206139
C 1.5516999855 0.0119594050 0.0000000000
H 2.3729740208 0.7380429269 0.0000000000
H 1.6087410554 -0.6165628896 0.8969585476
H 1.6087410554 -0.6165628896 -0.8969585476
