12

O -1.6665298527 -1.1588806291 0.0000000000
EP_O -1.6664716264 -1.1592773904 -0.0000000000
EP_O -1.6665886176 -1.1584839471 0.0000000000
N -0.5097019020 -0.9557871781 0.0000000000
EP_N 0.1529487112 -1.1078466338 -0.0000000000
S 0.0000000000 0.7729114717 0.0000000000
EP_S -0.0000000000 0.7729114717 -0.0000014200
EP_S -0.0000000000 0.7729114717 0.0000014200
C 1.7555760895 0.4165693588 0.0000000000
H 2.2796213398 1.3860902731 0.0000000000
H 2.0435358065 -0.1452654945 0.9025572425
H 2.0435358065 -0.1452654945 -0.9025572425
