8

O -0.0464622883 -0.7485476237 0.0000000000
EP_O -0.3279120775 -0.9504503452 0.5603468856
EP_O -0.3279120775 -0.9504503452 -0.5603468856
H 0.8697657182 -1.0585168792 0.0000000000
C -0.0464622883 0.6497968060 0.0000000000
H -1.0988613498 0.9776961730 0.0000000000
H 0.4397838339 1.0852112236 0.8988127845
H 0.4397838339 1.0852112236 -0.8988127845
